12
miaow
C -0.5101864940682996 -0.3779249862803477 -0.011128195862469492 
C 0.6680897147836173 0.4426349644768722 -0.04771716006472332 
C -1.9772116903400216 0.08978284414849584 0.0390805414678785 
C 1.8879060497175588 -0.058625301277632366 0.027577964964119028 
H -0.4660540053227885 -1.4815864649115675 0.019839773809865194 
H 0.36054587427887025 1.536455627729906 0.033138884981484276 
H -2.4549456610936056 -0.22433466440405575 0.8797185116500393 
H -2.063298797119931 1.0875245044880846 0.029419654639643435 
H -2.430967364949742 -0.3243565846003189 -0.8330152793061005 
H 2.404780167294432 0.2724633017735945 0.8910137479899154 
H 2.0564867101139326 -1.2496746229781241 0.014137626981296331 
H 2.433420917067246 0.1640271690988285 -0.8422432609442629 
