12
miaow
C -0.5173557164728853 -0.3699658306031961 -0.04949529247290024 
C 0.4950273356859879 0.3622050843143131 0.042668019474010076 
C -1.9148115087446893 0.09164087979525475 0.015225047749346039 
C 1.9477313062857187 -0.12532392434138348 -0.03290538355571006 
H -0.42775019787911034 -1.517112719993955 -0.058764255864523725 
H 0.3801732063967044 1.4446151747139206 0.012371863576073212 
H -2.4442515758654886 -0.2202093216221218 0.9588813788367692 
H -1.9712240999075736 1.197380656006658 -0.0920406803612517 
H -2.4081999276107746 -0.17679189426812258 -0.9586454766044777 
H 2.4462731671260096 0.2478916250084799 0.864202364280674 
H 1.9970850002288445 -1.2364319703549265 -0.0363145658673561 
H 2.4586972303127763 0.2411008632373426 -0.7892386178477293 
