12
miaow
C -0.5713282014900771 -0.39478344196970805 0.04876589126145611 
C 0.6138747658453287 0.39162026727401605 0.004074875495067869 
C -1.9579483096412091 0.15394773636252654 -0.03098816470252685 
C 2.010719321854324 -0.11427749924610751 -0.025908246469512584 
H -0.4821025209090336 -1.5363985767351787 0.006940972312755605 
H 0.4295376164714302 1.4468724838768203 0.02518323751047943 
H -2.5154138104365167 -0.18395290421656157 0.9301628963579084 
H -2.060651542305029 1.2779010734251366 -0.012591084577698293 
H -2.459503895808453 -0.3011064312945999 -0.848009279945762 
H 2.514679858314802 0.17289472260722588 0.880179047586403 
H 1.898821066918893 -1.2145910626919514 -0.06910391288338082 
H 2.5025305511947127 0.23451940471269062 -0.9762842385299766 
