12
miaow
C -0.5460975848471186 -0.33744710722920174 -0.05438001569274005 
C 0.5108015428617885 0.3675847457018214 -0.030046340983054094 
C -1.9129514898096351 0.0951197537825256 0.030747400725231626 
C 1.9596729545512142 -0.13474277985946542 0.001036954895539313 
H -0.3926006524334854 -1.3558825653543334 -0.055739295714028976 
H 0.4319929952145424 1.42708122931904 0.00623733588049192 
H -2.4284980412394472 -0.25195587467073655 0.8521270956186117 
H -1.9654268506505932 1.1725238571549008 -0.0180976242432796 
H -2.492058294867794 -0.17853138640542 -0.8997420746137548 
H 2.3559153984523795 0.2388576656271488 0.8387367400687994 
H 2.0609238057065715 -1.306540066378187 -0.10208163546992166 
H 2.4314187614486547 0.28678342348932745 -0.8949104515427587 
