12
miaow
C 0.582082550729147 0.5986326136094366 -0.3193560853022738 
C 1.6557508504072007 -0.523278631530038 0.09262593686615417 
C -0.6276390786104807 0.23106248760714204 0.37125992898959387 
C -1.6553823329582145 -0.41207923919830675 -0.19230816650000038 
H 0.6136797508070211 0.6151861903648536 -1.3538522094440222 
H 1.157074681764321 1.5743550466973482 0.020234515975720548 
H 2.6942349743368856 -0.2887409562792823 -0.3874768555917501 
H 1.3575854320588479 -1.481264807185355 -0.24729542694498433 
H 1.8193873497404625 -0.6161431572722906 1.082407734480629 
H -0.9090478600910675 0.6559231708516832 1.3766079249662015 
H -2.526049354744879 -0.6334511152311658 0.40564552461994496 
H -1.423422969639288 -0.7983641586665149 -1.1930330127965676 
