12
miaow
C -0.5624286335226729 -0.40318152814064534 -0.016650563615934186 
C 0.6400877008710663 0.3813238312782602 -0.05749886369247714 
C -2.0144748706516316 0.1062877118753226 -0.03522234778112024 
C 1.9087422022232763 -0.07789206098781877 0.09227668812004372 
H -0.46158301843154476 -1.5319590801407956 0.011919753929751389 
H 0.3927914572856055 1.3777076929867687 0.04277483299720923 
H -2.424377193671893 -0.31181484454467223 0.8958583462991344 
H -2.0607861550672264 1.2023717310006827 -0.06312733232607859 
H -2.5394007600773643 -0.3630022342615005 -0.9619718152768344 
H 2.447627084647278 0.2758993898967348 0.9379143729233766 
H 2.0485018443782703 -1.2650432225615604 0.042125865808020704 
H 2.499228879579176 0.2053696091752435 -0.8548364960131442 
