12
miaow
C 0.5830240423808263 0.5641824063709426 -0.20561810434934963 
C 1.6431927612799755 -0.4992466643536762 -0.000983168241262239 
C -0.7224912205610069 0.264847089549519 0.34260863326481444 
C -1.6793879177012103 -0.3720204693261446 -0.10039561118665533 
H 0.6121574651353651 0.6082540208701369 -1.4264220599156294 
H 0.9956355748895263 1.6373533910790499 -0.002994532179465624 
H 2.4712843384843883 -0.17674827229396478 -0.38001597248441715 
H 1.2830295777855638 -1.4762496530650682 -0.3275386985066004 
H 1.7021598249711343 -0.6393314478934696 1.2324971026810712 
H -0.8410488194446335 0.6565293375396005 1.3887656370601535 
H -2.6110659857969725 -0.5415543632175817 0.37299901694808735 
H -1.5840214073206278 -0.8398268810252021 -1.1303991479701274 
