12
miaow
C -0.5947004527912232 -0.393697427522786 -0.023813793365827653 
C 0.5430559562751042 0.3468053926368538 0.0519033343518499 
C -1.9111283103314403 0.1896694414317882 0.09561089838032681 
C 1.9303815643047648 -0.20511494072012404 -0.037125410906188934 
H -0.36299771261555963 -1.4841992023842943 0.09456818957038843 
H 0.3948841389283457 1.501307893664485 -0.03609852006429211 
H -2.541131092494114 -0.27905053861502493 0.8676293512415972 
H -2.0568317242931626 1.216240146514253 0.036939921292046214 
H -2.47892138615195 -0.26552976021236013 -0.8763976341154773 
H 2.4425735503431536 0.21597198325593345 0.9233492754123492 
H 2.0126498003991924 -1.1837368371569421 0.05740234381200519 
H 2.4551483738902844 0.16252368466095435 -0.8712675956899513 
