10
miaow
C -0.5701145724236785 0.44549482739206336 0.010918413065372562 
C 0.5619731343030179 -0.4689905409654254 -0.029954227694763986 
C -1.8437953517187615 -0.1432530998389318 -0.004100289069495542 
C 1.8260309835611115 0.13365290340953767 -0.04570494900821045 
H -0.49130009423424353 1.492428653026747 0.0065715222829565954 
H 0.42080163167323414 -1.5376389084801734 0.02377570717019632 
H -2.7039017258104696 0.5268425643193466 0.012712472784633508 
H -1.9828219729486969 -1.1991284925485464 -0.005170433448946022 
H 2.739944022877121 -0.4420249557764918 -0.003537635308438718 
H 1.8900144011942777 1.1308137075589528 0.07741333481484151 
