10
miaow
C -0.6576470931707765 0.35903384301472346 0.015516458485969843 
C 0.7006856218953348 -0.42399463617548344 0.011225164426845203 
C -1.8202641323519242 -0.1879256713334764 0.04321267420493157 
C 1.8181481103424728 0.024409033147924877 -0.05181160650523094 
H -0.5141832833442276 1.470810886687655 -0.03859339683067471 
H 0.4313478181391829 -1.4490777397079762 -0.04648966618640142 
H -2.6498392790732206 0.45880416151650244 -0.03179166508373723 
H -1.964244942098546 -1.180241309727129 -0.02075032566824986 
H 2.5999089515833247 -0.49209027523416565 -0.032784104427243464 
H 2.0260556684865034 1.1680525978179153 -0.014424634960544323 
