10
miaow
C -0.5823263423213999 0.4664257552616702 0.04904297302045656 
C 0.6223747606978165 -0.3482295583365985 0.04292956163953953 
C -1.8565022849456538 -0.0999151914197494 0.04509009372097859 
C 1.8050915444792972 0.23358992910387383 0.03957601985381084 
H -0.5222266182642661 1.5062722814588714 0.0884264213245216 
H 0.5310665962861734 -1.4640055762395792 -0.11128082849952826 
H -2.8089714652207616 0.4878401136465482 -0.07386956115641091 
H -1.9897881437738254 -1.139121146435655 0.04939714884566657 
H 2.660228460285643 -0.47821426642867326 0.07545025423494928 
H 1.9959895992508996 1.1746848525879383 -0.01987880091535218 
