10
miaow
C -0.6282125406325889 0.42257009619448405 -0.0011320111324880815 
C 0.45291122697585284 -0.3510329159108827 0.00043077190400003427 
C -1.8124806417973527 -0.15908496572700348 -0.062474838012888716 
C 1.7533203699190212 0.15627682888780114 0.0043748260847576185 
H -0.4714467345672725 1.4902996701875602 0.04951897464690819 
H 0.5154896632858117 -1.481710130524363 0.00944343225485299 
H -2.75055620821522 0.5129921745672676 -0.061078161367949885 
H -1.9923272826513927 -1.1378393046996698 0.04880918067081126 
H 2.684168537750387 -0.5263757716830267 0.09882818405647095 
H 2.022142892457574 1.2348243004419857 -0.04046945210621615 
