6
miaow
C -0.6587002367968523 -0.030220709197956455 0.057867215091185954 
C 0.6988497032220675 -0.029475279004768963 -0.003363948564464199 
H -1.2307096221712919 -0.962200822693902 0.025456411137448703 
H -1.2609392461080056 0.9390631622421938 -0.1215526234287242 
H 1.2112735095097258 0.9388099793924245 -0.0654389566607285 
H 1.1553621360700495 -0.9638936048782382 0.09218466131542932 
