9
miaow
C 1.2964589463693637 -0.22840010483676873 0.010883956933727715 
C -0.07357535564943732 0.5294577839543548 -0.04406427296850059 
C -1.2245439329854213 -0.20130519645695183 0.09982625306809158 
H 1.8319348951020922 0.10411328574825941 -0.912323788690655 
H 1.1628144388230008 -1.3299179973361865 0.0059680445159014175 
H 1.8356291710435897 0.17909005475973516 0.8697541695146374 
H -0.03420585559049763 1.5627580114248343 0.03583569612945247 
H -2.1424046693211967 0.25906076834152564 -0.057949690214659844 
H -1.215982017871792 -1.3596519596014942 -0.015687661954749882 
