9
miaow
C 1.2636302599552405 -0.2371056921845032 -0.007584211426050553 
C -0.008784427193956515 0.401729352512846 0.00918071352112367 
C -1.1646765025545744 -0.26824905315783976 -0.05944629100239251 
H 1.836047424780982 0.1331810121777442 -0.8165371526313608 
H 1.292547846785446 -1.2321710267393706 0.0028834422823243904 
H 1.9187867322044128 0.13699728937977762 0.906150876272668 
H -0.08887542994172343 1.5409625195175967 -0.025649659395588328 
H -2.1616521190086884 0.22801071597551503 0.0661219609268661 
H -1.2380453001723228 -1.305416974736658 0.03922725839403518 
