9
miaow
C 1.3112865176705084 -0.20441141531605714 -0.09250768443388424 
C -0.02771438382631631 0.43110582468222636 -0.006311972083893828 
C -1.2227310286571875 -0.2419959083651033 -0.06695107026670187 
H 1.896999410062738 0.0621661480642548 -0.8828401869036122 
H 1.282337590007869 -1.2764523543387618 -0.010751833825545903 
H 1.8882339404680502 0.07436186654417959 0.8696765014000354 
H -0.06591516432296902 1.5833173841647141 -0.06547477736043815 
H -2.1191894867664005 0.23275576074903845 0.05576248867379835 
H -1.284725004347957 -1.1989641301078195 -0.022970968198325482 
