9
miaow
C 1.3179433540908552 -0.21299450021687039 0.020266766844737855 
C -0.14239915018913687 0.4567286667905947 0.031925736589205764 
C -1.242087357234816 -0.2331434610337625 0.05144461529846529 
H 1.8187568231629485 0.07322507019697092 -0.8712148282048618 
H 1.334978218772243 -1.2596026284191988 0.01665081070209811 
H 1.7731389573319793 0.022053797446195192 0.8259706086126414 
H -0.1173774829480596 1.4760755130880787 -0.039080936059225635 
H -2.1333764045555235 0.17980499799199678 -0.07370739387141799 
H -1.2238597075772182 -1.3225504186207533 0.01273715602163738 
