9
miaow
C 1.314382485793738 -0.27380302340945406 -0.034303878934213675 
C -0.08610004038454418 0.42277074368145795 0.0027211906592612693 
C -1.2274359890045652 -0.17470632979125023 0.04565377255267027 
H 1.8738698913171425 0.13185996855607304 -0.867603889276039 
H 1.1378281107557222 -1.3154700247926 -0.021342489681677977 
H 1.8067573053641457 -0.006638095305353198 0.9151641610934393 
H -0.1382593044722941 1.5224905318605173 0.013622019837385405 
H -2.2032431367471372 0.27723412696250815 0.019947692873038728 
H -1.332161974154071 -1.3508328418249063 0.0185369156685779 
