9
miaow
C 1.298514133281372 -0.23636071502357756 0.0546964686232211 
C -0.09079843270973939 0.49152551778061837 -0.00703722254015412 
C -1.2054207503826393 -0.20633536890838106 -0.05834963556147267 
H 1.8268292345637624 -0.005554912600724091 -0.8835711874693233 
H 1.273227689398133 -1.2305440847877933 0.009464127149101895 
H 1.9079087257625582 0.16172349160594357 0.9022693573958126 
H -0.11882122710939531 1.4634773819691738 0.017549294221501286 
H -2.15435494931632 0.19643117483537686 0.09191251631096836 
H -1.2216601069606112 -1.2918754069891853 -0.0008103121053908212 
