9
miaow
C 0.290172295939088 0.8446085200275151 -0.03450485798836493 
C -0.8047190273095316 -0.08524755974379161 -0.010744713848499128 
C 0.512182713747212 -0.5258497634906122 -0.06705536661163544 
H 0.5879963135991036 1.413660323360175 -0.9362359380926002 
H 0.38109304856186815 1.2838692876895381 0.9716358926723869 
H -1.4931197036341253 -0.25760980069366335 0.9080934862642529 
H -1.4206885531085105 -0.2642410161051538 -0.9225214894890379 
H 0.923495264646239 -1.1793782610175598 -0.94070148441298 
H 0.9493730496464265 -1.168964272545973 0.9031239589907633 
