9
miaow
C 0.30334693165823995 0.7272200578498806 -0.029240159898023095 
C -0.9088683329409611 -0.10767037940351491 0.04122538872192013 
C 0.5889450139801055 -0.6394434519994806 -0.011967766822112553 
H 0.501865856889098 1.3502884309574412 -0.8646543580160189 
H 0.5410277590808398 1.3579132972082786 0.9609394139541136 
H -1.4939881563209358 -0.2482135373217719 0.9121712630980312 
H -1.4430400046881964 -0.2636226314521372 -0.8715236756650222 
H 0.9213384303400483 -1.1085388639561267 -0.881968390840409 
H 0.9199195553443321 -1.1942976416901 0.9596175590837651 
