9
miaow
C 0.28596682324798633 0.7907342773593874 0.04084332717481953 
C -0.8949565625407141 -0.16870622741846392 0.17082227613389014 
C 0.4900080471423345 -0.6353279925564702 -0.029544395992202852 
H 0.4678154113541252 1.2661942916395565 -0.8944164361702428 
H 0.5318699036121445 1.3222064251642132 0.9709941575982253 
H -1.4852557374441808 -0.18943832835943747 0.9117529547821205 
H -1.4263125965308059 -0.17229529328436766 -0.8138385628600606 
H 1.015971957441967 -1.1727716231211451 -0.9011717385340042 
H 0.9260663428304875 -0.9784257511006592 0.8615896367971667 
