9
miaow
C 0.22500518333728664 0.8220323777494645 0.006299984934404735 
C -0.8191387827900741 -0.07139250076431247 0.07107753860127841 
C 0.5850504596677166 -0.6313609503530547 -0.020592637270771437 
H 0.528676797200833 1.3619203286126287 -0.9283493909852689 
H 0.514950897351159 1.3360198638385061 0.9219533227225792 
H -1.3518154597849499 -0.20221882488398857 0.8830989609010802 
H -1.41023851913039 -0.11242258464543588 -0.9202593364414874 
H 0.9129120689729063 -1.195325364794315 -0.9122359287712125 
H 0.8319300246528839 -1.1384914605439724 0.9310386867732099 
