9
miaow
C 0.3670326948057148 0.7565774338527526 -0.052238377895117864 
C -0.8412196977364949 -0.2026935527506134 0.048985667339306364 
C 0.534280954162972 -0.6059888891952677 0.008500551482065282 
H 0.5769557545492708 1.282517912546394 -0.9663422549183651 
H 0.55672061897739 1.3977488587054054 0.9337761778238213 
H -1.4020538248911898 -0.1963826318737401 0.8808543879773874 
H -1.4736551452216575 -0.2023464949584103 -0.8869419695572603 
H 0.9403218484893928 -1.2027847654657524 -0.9075883961848736 
H 0.9491241471311539 -1.068321472010297 0.8784037453198376 
