9
miaow
C 0.2783492920954962 0.775274631982695 0.048845981440874583 
C -0.9104071406214265 -0.09737376555307395 -0.015687141802556922 
C 0.5864060731834305 -0.6706165823494464 0.01966542303685045 
H 0.5338937938548975 1.335050016029317 -0.951537540215445 
H 0.6312590564955362 1.282381931749568 0.8555435924214918 
H -1.4313643256240949 -0.27548025200269155 0.892705749680324 
H -1.5110769331912326 -0.23577482129018026 -0.8805971542729931 
H 0.866717118546889 -1.0129975292104552 -0.9969460187802439 
H 0.8587977136284193 -1.0297543800218003 0.9030457240353605 
