9
miaow
C 0.3743621161343744 0.8535568776282416 0.08157016249255264 
C -0.9654331380190903 -0.12237014441016206 -0.06440346072681058 
C 0.5537567245478837 -0.5980959166608717 0.012358560048742953 
H 0.597649417244928 1.3462057367334492 -0.9510852851806875 
H 0.5216825556164578 1.3558790731721164 0.829072806306341 
H -1.4691389172848224 -0.22761820737627758 0.9616289079422775 
H -1.4642985730323521 -0.2073626457661264 -0.8536214662476828 
H 0.9679202142946022 -1.1112473186096246 -0.9515334660765402 
H 0.9539688861887338 -1.0860199662602157 0.8701727379586973 
