9
miaow
C 0.32490070384663683 0.844207587221502 0.029662233357813702 
C -0.8010460334237094 -0.13335039448265992 -0.02767282852895028 
C 0.5563497136039073 -0.665670586311979 0.0011040301128375483 
H 0.5160450141662647 1.4167539949279837 -0.9546808691394499 
H 0.524559649712673 1.3215463271464585 0.9766111062337676 
H -1.4542723195147982 -0.26519994608597597 0.8678145344413598 
H -1.424647122747819 -0.19358759761809782 -0.9109463383721615 
H 0.9170838449466026 -1.111265629276 -0.880533665518965 
H 0.9626493097074401 -1.1757277770899295 0.884945470402247 
