9
miaow
C 0.4360365561362697 0.7340861289877674 -0.023780415655034262 
C -0.8704169866728126 -0.13912862670387763 0.02029640754692115 
C 0.5633768850836021 -0.6019275357916279 -0.09089286067007538 
H 0.4903473103867735 1.2924463872036362 -0.8993999720339494 
H 0.5269087958556483 1.366988467156307 0.9492645263660008 
H -1.4427797772509265 -0.2133304552806219 0.9615288844273129 
H -1.3842049980036746 -0.10581016191847699 -1.0541080587406242 
H 0.9230926667028974 -1.1400557225632446 -0.9149585014378042 
H 0.9682137839902819 -1.098008074361821 0.8662479795174283 
