9
miaow
C 0.41139314203050215 0.8242634168490931 0.05071184217631084 
C -0.8381072336164982 -0.07625293634809563 -0.031923856144959975 
C 0.6348134749004571 -0.5771975171406435 0.11598724453760849 
H 0.47412559849189584 1.3205100838236017 -0.8779746486038184 
H 0.6040200652763862 1.4744193055082457 0.9864472478378841 
H -1.3745523111552915 -0.2556133808761712 0.8517172261182541 
H -1.4204838771997557 -0.3159123077529493 -0.8241673296905975 
H 0.8574788910400173 -1.1852503388771867 -0.908911515211899 
H 0.9120309413836382 -1.2041502889626572 1.0183819278341226 
