9
miaow
C 0.3222721766269386 0.8237053795165834 -0.039882279256413064 
C -0.9090950192144626 -0.0881798375579278 0.01740411256781521 
C 0.5779383918131802 -0.6607100052395478 -0.012462640729468922 
H 0.554867145398055 1.3593304992502302 -0.8417056880747358 
H 0.41960453118095914 1.2408178328351067 0.8768307722553361 
H -1.3749856736250707 -0.22059152130917736 0.8735959045400289 
H -1.4510626019313937 -0.10883183546510274 -0.8874253923964761 
H 0.9795649162632118 -1.1269453590001965 -1.013769827478294 
H 0.8319817357147332 -1.1278920645320025 0.8904590578411729 
