9
miaow
C 0.320179154610079 0.8078111102612487 -0.025776190401339487 
C -0.8287476093772123 -0.060430388347651715 -0.12279478312053126 
C 0.48592617594943366 -0.70759430693535 0.023126485666353492 
H 0.5849006662088312 1.3759839424201596 -0.861817524940789 
H 0.49711781948017825 1.3676925111780662 0.9423907156722271 
H -1.3810614393686413 -0.012292492641742231 0.9977989893463739 
H -1.4110617663302945 -0.12255877905086537 -0.9537191046683405 
H 0.8791092472657609 -1.0137064382245764 -0.8019053646484128 
H 0.8532203128622792 -1.1324794311184652 0.8980095949653157 
