8
miaow
C -0.7577987779380273 0.0003918997977117789 0.07345131157823746 
C 0.7138626435789005 0.09084007496539157 -0.04418047517183631 
H -1.1274988052487929 0.6125556778064245 0.7932666539806715 
H -1.1723736438396457 0.24201860344158133 -0.8017870482077817 
H -1.1605242186843494 -0.9684745896759333 0.15199093160152488 
H 1.1540917408553415 -0.2278063920263634 1.0024102744509145 
H 1.2418531158226327 0.9475475938985128 -0.16719720555813367 
H 1.2934759844502552 -0.7654014224102137 -0.852615191628429 
