8
miaow
C -0.6252512138527387 -0.047826827615814 -0.012193314411738656 
C 0.7599752884700066 0.12370595446891706 0.11912531561617057 
H -1.2083908501792886 0.5019102932529533 0.7350791342280525 
H -1.0858894451180479 0.4333758288846273 -1.062742146738491 
H -1.1975293355324093 -0.9237021427037084 0.1720023860353928 
H 1.1085212131418072 -0.29552977706307 0.9806846994847565 
H 1.132034337647983 0.9964504293246945 -0.29251721819930215 
H 1.1385379092355732 -0.6015199541173668 -0.7287395405624955 
