8
miaow
C -0.7799652445654119 -0.1715789636451257 0.0620655865901152 
C 0.7363018625309784 0.10621267825532242 0.013184784330076919 
H -1.0884847520988972 0.7090206074756931 0.8866003447259473 
H -1.0977582378540105 0.3768846349572131 -1.009701337339301 
H -1.1499772473979402 -0.9807560937182404 0.2441583847282352 
H 1.133416549692228 -0.36261390079750805 0.9214591364356797 
H 1.0930731466039632 0.9457675540390348 -0.12790125865742236 
H 1.0748231493193783 -0.6799746044395215 -0.7937501898148612 
