8
miaow
C -0.7460389985448758 0.0018294917643074222 0.0451583829042721 
C 0.8417932636079136 -0.02744942522933903 0.04650914425905962 
H -1.0253052192403933 0.5498630403415008 0.9084127948313542 
H -1.0919943717860223 0.44897251676229744 -1.0441590762488466 
H -1.177869992489408 -1.0741060216708709 0.22707418523624923 
H 1.072217363277783 -0.39079681454464954 0.9722800780991796 
H 1.241617288909325 1.080064321928244 -0.0065491154648707195 
H 1.042113843077693 -0.6271068802944404 -0.672931134270061 
