8
miaow
C -0.6746960852079626 0.08927225247928847 0.08240149651877467 
C 0.7423632104359991 -0.0285800025608825 0.0324030536367101 
H -1.1167504890811915 0.6320676934889627 0.8184517938292104 
H -1.0645515937478585 0.37763830736203285 -0.9045683890769789 
H -1.0737772035732136 -0.947337212072741 0.2007692203332552 
H 1.1728267303401432 -0.28418484124672666 0.9525652596607332 
H 1.1890793770394483 1.0271339970633133 -0.23838872799325542 
H 1.0764520718216313 -0.6016827785064838 -0.8349574995152449 
