8
miaow
C -0.788871598291547 0.03686194341792687 -0.056587329757942416 
C 0.7727629902222402 0.08235043804975246 0.06347800291329159 
H -1.2423855855434784 0.738223867516962 0.7924543970109772 
H -1.1294430173892016 0.33676815790396686 -1.0426990670661314 
H -1.2123174113545727 -1.0535497900801942 0.22068981454088307 
H 1.0705620924009893 -0.24689814137889404 1.023700244790515 
H 1.1641030744921186 0.8658333026493195 -0.2516184167607844 
H 1.2951987046698943 -0.8016281398239198 -0.841401064302712 
