8
miaow
C -0.8673306436511322 0.04650059605494586 -0.003004953316449809 
C 0.7668271504225551 -0.08394566501251267 -0.018409028071796216 
H -1.2192285094403084 0.7267849548055422 0.8116491507274516 
H -1.1529972561137978 0.3458917452919854 -0.878186642326366 
H -1.173463985417415 -0.9783145392614266 0.2107170529307812 
H 1.2237506332935388 -0.2927383765852687 0.8795300372797284 
H 0.9808617979513607 0.8960526677894742 -0.21354292841737368 
H 1.184562701290919 -0.6590311304489158 -0.7278730412072857 
