8
miaow
C -0.7040217820859883 -0.11081197324554032 0.01829509141122355 
C 0.7900839156378625 -0.012470027238377798 0.03547383851260908 
H -1.0643775394984074 0.620851407946091 0.770910098057879 
H -1.061408098373754 0.32463967073443967 -1.0203855746640034 
H -1.1038489404658338 -1.0167505432092343 0.09537722126393919 
H 1.1457142667687594 -0.35895971114144276 1.0233448245697017 
H 1.078771348133768 1.0508992463820233 -0.2517905624049483 
H 1.2187922087416931 -0.6637740606741739 -0.8496655606529051 
