8
miaow
C -0.7397170814797285 -0.021192410533141887 -0.026737950149135045 
C 0.7451042994342216 -0.04040690354880551 0.03766245126237245 
H -1.141398664573445 0.6413164250675307 0.8002385242264973 
H -1.1383599696264084 0.343452618527673 -0.88765957879651 
H -1.1515449049691453 -0.9874104774297913 0.12966455130017787 
H 1.1657089717649323 -0.3408765716113785 0.9916763395216783 
H 1.0469097228938298 1.0521350418580955 -0.15147509620431104 
H 1.106364832559518 -0.6838445935811879 -0.8376831338052766 
