8
miaow
C -0.8584023893802002 -0.03598443669201858 0.03915230639440715 
C 0.6972468469601557 0.02841812641218228 -0.12184911912269124 
H -1.0401863572044525 0.6875420909923976 0.7259873903532483 
H -1.2086487418636684 0.3592363361440732 -0.9376800416500348 
H -1.1780304063213893 -0.8529036786863458 0.19240897368004 
H 1.0112476908024919 -0.30083315407257477 0.8803292415514838 
H 1.0333927716410773 1.0288591065905015 -0.16558907155003091 
H 1.1669326465849423 -0.6937475619332136 -0.7936598721326089 
