8
miaow
C -0.769425574695472 -0.09068046527751038 0.022795540943064668 
C 0.7541828756154103 -0.051071085428525946 -0.030382312232008133 
H -1.055242002560634 0.684459187238669 0.7727894747001396 
H -1.1036300544349695 0.3663757849387105 -0.967681494389424 
H -1.1048293937889326 -1.0619037325431406 0.25633348552679086 
H 1.2755905375085277 -0.2658513490838974 1.0400500384519658 
H 1.1481596861067807 0.9064453728125865 -0.15708563565959346 
H 1.2724833256124022 -0.7103696335148771 -0.8476783776658211 
