8
miaow
C -0.7642223310341946 0.0032486288765324464 0.18651006968207226 
C 0.686373354671194 0.06708345345707704 0.04609886549548511 
H -1.0907628501757851 0.7863927055795394 0.673563437662793 
H -1.0728734682264935 0.4271694120925782 -0.902601914971452 
H -1.30562380321674 -1.0060471235219695 0.10584286923566481 
H 1.0728798562782187 -0.27942237129146735 0.8226737797383755 
H 1.0934722010467164 1.0288287542664254 -0.0831802583812141 
H 1.1781879871845506 -0.7106015377889406 -0.8030739079782618 
