8
miaow
C -0.7002443256003096 0.05541760889452595 0.032759713283454304 
C 0.6390197384833222 0.008062058198546978 0.004994970633100843 
H -1.1430962250289676 0.6273010215174308 0.8313409240337722 
H -1.1785449475072263 0.2918249603236405 -1.0551728002113248 
H -1.0587044776320873 -0.9773620344883709 0.26749024288849643 
H 1.1994310774666639 -0.38393822228464225 1.0551012367174553 
H 1.1329340196058393 1.0899861218590807 -0.27223001818904613 
H 1.169344796482904 -0.6025364838533752 -0.9243070410518891 
