8
miaow
C -0.7190354231035432 0.06365712192069442 -0.029147571693695293 
C 0.6694299093103588 0.026120339319939907 -0.047462678457808716 
H -1.1356876283769195 0.5376752659138131 0.7874711406597573 
H -1.1222319387811925 0.4480526570545916 -0.9461238191080716 
H -1.236305406866801 -0.9478653909794676 0.16157197210473134 
H 1.1902982994220253 -0.4395169580036934 0.9160805035460454 
H 1.1193902124092945 1.013483076799789 -0.17813058782138688 
H 1.231780183503899 -0.6664841055561677 -0.7309321390538197 
