8
miaow
C -0.7543523517342869 -0.020583456316613673 -0.04207200750799017 
C 0.8632838708468423 0.09468604142335739 0.0712431077003327 
H -1.1052852504158674 0.6580072845348862 0.7881691650941294 
H -1.2026013594991096 0.3778873784024855 -0.9315877485854822 
H -1.1296093623254428 -1.0410304593135071 0.14808268085753204 
H 1.1366921162907473 -0.39301288548851543 0.9643056850137182 
H 1.146761326556408 1.0076552679958801 -0.14829057266954015 
H 1.0818377443665566 -0.6605488338018511 -0.7794562771341051 
