8
miaow
C -0.6542667779234062 0.03174179916630363 -0.008470868684709433 
C 0.8213645054238831 -0.05308668154170676 -0.013321801543626456 
H -1.052696862201461 0.5696992115967929 0.7994997673788421 
H -1.1494828121645821 0.3139606825948264 -0.9503622524180426 
H -1.2376891720465002 -1.0947615633472205 0.13734264288274642 
H 1.0810876334749102 -0.3031267961922914 1.0006113071555824 
H 1.1514747199336768 0.9953610882304116 -0.14227651687630394 
H 1.0445409275214326 -0.6436428793245924 -0.8267490488924334 
