14
miaow
C -0.004455042414183548 0.05252890494014474 -0.38667073739428626 
C -0.4771742501444182 1.4126384994256922 0.09556125651670343 
C 1.4276295378834303 -0.21030056303062708 0.14735605100590946 
C -0.8435804275105961 -1.0669591508940963 0.1142528768322211 
H -0.057784322073864594 -0.04327392970964167 -1.3600180036890157 
H -0.48557725884026126 1.3694916581943823 1.1914387321857962 
H -0.1130298388291171 2.1617545131664975 -0.24637083635322812 
H -1.517355993284206 1.5536597113563315 -0.3006708613636969 
H 1.5346008719301438 -0.2201499489147889 1.2387923060037493 
H 2.0753379086601904 0.5306053703114766 -0.18135188562361276 
H 1.7562014329873956 -1.0659709617419408 -0.2786320034166675 
H -0.882786738778335 -1.201649841873015 1.1431088412643615 
H -0.6129594187472746 -1.9695171267225384 -0.2802720985932765 
H -1.8311783415072402 -0.9999121566553854 -0.24792224783853659 
