14
miaow
C -0.012773414555484973 -0.06551801350618804 -0.3346676795001697 
C -0.5750733030497577 1.2942566760810141 0.1763726172825283 
C 1.5443391701079174 -0.35258535187619877 0.12962214784092796 
C -0.8928424020042073 -1.1335239364592455 0.12452026895198158 
H 0.025030651032900232 0.042459138351711195 -1.4129549186851993 
H -0.6252707306431561 1.4477505895605092 1.3679558335767783 
H 0.15865425318069692 2.2025287581824595 -0.3177176433889607 
H -1.5799122546964812 1.5176690801667523 -0.25682765189122414 
H 1.3884674874073268 -0.221475496979077 1.2688162305511825 
H 2.0837578132848296 0.5488161021243458 -0.25376891486733444 
H 1.804281151615014 -1.206576228802738 -0.28412361410578385 
H -0.9578656588008294 -1.1436666669697977 1.249069771049151 
H -0.5203804734558017 -2.0785918652179376 -0.2470028490354985 
H -1.9037900457605912 -0.9201873906037144 -0.20166536100131366 
