14
miaow
C -0.049556296093379026 0.010255114314601504 -0.2835687171152137 
C -0.44105581708957814 1.4065924133637584 0.12994848722941227 
C 1.446018895370636 -0.275713942592395 0.06310449760039283 
C -0.9427190683559816 -1.0777120744634798 0.09566978958479519 
H 0.020040378488218873 -0.06299718602305229 -1.5025765843064691 
H -0.6323227921441595 1.2876231666773965 1.2151178265756768 
H -0.053804009330190555 2.165491537954614 -0.1954503365961835 
H -1.6142416941549946 1.5398340760516822 -0.15998997006581667 
H 1.3790357137106346 -0.2142134205506705 1.2856808402490363 
H 2.070052712819378 0.5206062790498155 -0.1750144988572831 
H 1.780237221350033 -1.1233261057745856 -0.2228895096345022 
H -1.0237491070283506 -1.264884100973362 1.2507375013656634 
H -0.5916512981787158 -2.036212419103273 -0.18240244894869817 
H -1.8244956554057585 -0.7920026718626254 -0.2474800675525498 
