14
miaow
C 0.034735499454459216 -7.471845389605296e-05 -0.2089088446580428 
C -0.52436978370109 1.2687848421685997 0.09706103968382021 
C 1.4714518952348035 -0.21611485550674145 0.1842212496668526 
C -0.8822448944940255 -1.1679280426336347 0.08856687217725218 
H -0.0027094262200195586 -0.08014855943694706 -1.4029201959338724 
H -0.46459989496654575 1.354439652382658 1.171253854103097 
H 0.1612104946390646 2.154185328977043 -0.2844798120036457 
H -1.5458146219639464 1.4783530199271595 -0.18590722527034698 
H 1.501093578838062 -0.29875977389862196 1.190476511077051 
H 2.163377404451574 0.5623985626510806 -0.2795982270999331 
H 1.6398446409969016 -0.9871821709080119 -0.2709882598716482 
H -0.9033373575537089 -1.3395880106288245 1.1979320855001185 
H -0.514008445334645 -2.188439788418393 -0.30557267984518144 
H -1.9251925340239942 -1.1535520056287676 -0.43057075346485507 
