14
miaow
C 0.03891922170022536 -0.03152341003943207 -0.35425041095098403 
C -0.4823172626272232 1.3792416616308083 0.1260514404815429 
C 1.537148202444071 -0.23955915107359846 0.0015593853252965917 
C -0.8687409528240881 -1.1329289913332632 0.0771756863076293 
H -0.01439315105454127 -0.012945502238203333 -1.351059355820824 
H -0.5457139827121934 1.476615118711391 1.1624081701724236 
H 0.032393447784300596 2.1814142967001495 -0.34820063995399764 
H -1.5154077428018817 1.5138875206387914 -0.3570157607776959 
H 1.5223216033325755 -0.21902573396600664 1.1495873208887444 
H 2.1761065030559967 0.6660753306729923 -0.21280241719162965 
H 1.8536602681011052 -1.0995502189689261 -0.23381533210944525 
H -0.9485126000341878 -1.0694760505873282 1.3112146250815817 
H -0.6146142854754538 -2.1895523935519683 -0.4577878711193991 
H -1.9036714501013785 -1.0690605825983186 -0.16931555623209368 
