14
miaow
C 0.04599622656517885 0.04497677235534031 -0.3306834009121897 
C -0.5755580967699424 1.4360651629153232 0.18299839041808694 
C 1.4225708956348793 -0.22016247494817276 0.06169726557199745 
C -0.8615632815167986 -1.1453722755942484 0.08807551744622413 
H 0.06436696887396919 -0.05071726895958839 -1.3935928976397778 
H -0.6210373181495581 1.330078190541354 1.243122596475028 
H 0.06603638645583904 2.1657414368267323 -0.32923246551716057 
H -1.5262281877870227 1.4942871125276704 -0.2030294651191758 
H 1.357747590772388 -0.24966168943345698 1.3092834936954612 
H 2.0255744375264495 0.6144683862690428 -0.28075388967556675 
H 1.7583067709651616 -1.1324094634869404 -0.2203991595016171 
H -0.9816477354067156 -1.2001448448233871 1.277640544513769 
H -0.5318543402197087 -2.084795856220812 -0.35649668021827197 
H -1.9383033720859102 -1.0045700620811422 -0.2350063186957502 
