14
miaow
C 0.046880959888929465 0.0479651041014416 -0.21395293463281528 
C -0.5213149556921719 1.3493624451111723 0.019956679932676927 
C 1.5230781341854214 -0.16982790400308678 0.15819677993358697 
C -0.8003592545976616 -1.1045041668195867 0.174004369405375 
H -0.09135405510626507 0.06422070515614439 -1.5440619967619718 
H -0.5784601292349459 1.2953444141912531 1.2769523307112816 
H -0.00011950115741346523 2.160435399842626 -0.3581949425575423 
H -1.4872740080215876 1.5291101084649223 -0.22501724820068422 
H 1.510691768001066 -0.1356575095273751 1.3054169153563988 
H 2.106581636916504 0.5526915380723401 -0.2720695022034529 
H 1.8577905491545668 -1.1788393851412158 -0.24930113497471815 
H -0.908918207713765 -1.099457792914863 1.0895375959518065 
H -0.6019053120660692 -2.0589735522190376 -0.39558095304895613 
H -1.7951807396138104 -1.016748435096233 -0.4786324922575962 
