14
miaow
C -0.03147508374602398 0.07155153477141113 -0.38335122584692394 
C -0.4929415539407622 1.3428486111393707 0.09346077493917479 
C 1.4379944191065221 -0.2379780171412104 0.16206813955263316 
C -0.931917722925455 -1.2288900156764435 0.17750947720460136 
H -0.04666716310735835 -0.0659096678265233 -1.428010992833782 
H -0.5058651394093999 1.4243753797723473 1.1422152863118835 
H 0.0629689636836305 2.1792469089995707 -0.30663834409976637 
H -1.5869090379914277 1.5696147485490162 -0.23143804993171174 
H 1.5028753151299186 -0.24394549280737884 1.2437202736764041 
H 1.970358543938487 0.6413786931247385 -0.2569597110124054 
H 1.8486356155207317 -1.063634783917037 -0.20104007334289267 
H -0.8818992424232432 -1.2263530414452892 1.2132807552390403 
H -0.5045721786327615 -2.059958839246557 -0.22876445396882328 
H -1.9421128821961233 -1.1168187105530385 -0.1405793788417362 
