14
miaow
C 0.07585637049277087 0.008606294977327796 -0.4317709528385119 
C -0.5631155096489913 1.2643683467627889 0.12696578228708374 
C 1.4954387455025875 -0.26652842132747384 0.20148030556868257 
C -0.9673077336123077 -1.1889894063884086 0.02198381469062534 
H -0.039019906646841906 0.048764387535105265 -1.4300450354022989 
H -0.5363921688933276 1.4593996529610174 1.24717943638998 
H 0.13702476215955 2.2727155454960717 -0.2546890270471344 
H -1.6760929053296412 1.5790737339858787 -0.2270139623357965 
H 1.489555338591515 -0.17653252053080282 1.2330771140950363 
H 2.0139693206765035 0.5634164306488734 -0.17815211607719722 
H 1.7555444539077172 -1.1018464484928296 -0.26877264575796495 
H -0.9652458960087372 -1.1409061934773763 1.158849132009719 
H -0.47088975053779614 -2.2340567842869965 -0.3159362902244548 
H -1.8436581386727147 -0.8978362025662521 -0.3382756045231479 
