14
miaow
C -0.03750428282441173 -0.08403475726002113 -0.3653131548101729 
C -0.5179399345054183 1.3297208232096245 0.10018993179875718 
C 1.4692449716054972 -0.14473156279020885 0.09416354560129124 
C -0.9191554768264985 -1.1121386756536193 0.05758404683092368 
H 0.054150612964949135 -0.040604933847427485 -1.3924754956700145 
H -0.5449582106017543 1.36857178757473 1.2078505381999767 
H 0.0700539555893308 2.243345322327648 -0.3180654515499552 
H -1.5904739965934513 1.6028700879182842 -0.19144579201571715 
H 1.4959748500843717 -0.2579028625260942 1.1818893015596674 
H 2.0909559841923664 0.6351660429682635 -0.298810227748593 
H 1.8909688213107123 -1.0439849962279921 -0.19034060730251467 
H -0.984186747470895 -1.125860003604306 1.182602013112803 
H -0.5578715373000782 -2.126743007197111 -0.15753488060393933 
H -1.8789857482715768 -0.9948220199378075 -0.24259202209713213 
