14
miaow
C 0.00231659551923032 -0.01461002486552224 -0.3389909337876754 
C -0.5433656034681429 1.2920523247898181 0.12102754860305266 
C 1.5926524248758147 -0.13421342973435088 0.10566558687611519 
C -0.8311270867416365 -1.2109161668040131 0.18505343802717794 
H 0.02471200848079976 -0.0197860247197755 -1.4371585638691255 
H -0.5106497906376697 1.2977671834988924 1.205217630075958 
H 0.186826997592009 2.22945816086713 -0.17653717357726123 
H -1.600761630147424 1.533003241743812 -0.3215484599391462 
H 1.5641517247196461 -0.11768639483885121 1.2895336265666988 
H 2.1432069214359672 0.6306111375013488 -0.3166978972101587 
H 1.7293768502697116 -1.1501403901105423 -0.31539014993518294 
H -0.797416009194718 -1.248644868148286 1.2439394538397872 
H -0.48111939399019615 -2.064343759868999 -0.0979219295324249 
H -1.9402339976078036 -0.9558662089389838 -0.2614022508135108 
