14
miaow
C 0.020039189206443816 -0.01937910064311462 -0.3923116010050343 
C -0.5808778245795766 1.3713079540698216 0.10605380571751516 
C 1.4694807857088672 -0.23377592725201857 0.17397223895089473 
C -0.7838529190827825 -1.1639152948823774 0.1547125374256184 
H 0.07107746925446894 0.028423450824413138 -1.502024109255692 
H -0.5212526909637437 1.3647062541868833 1.2571877981943185 
H -0.008319042795780815 2.1494674662676516 -0.24039645735969672 
H -1.5937696257897502 1.5025178576988105 -0.21937404656315057 
H 1.498999729665002 -0.15049498039765483 1.2139310511976733 
H 2.0401331181886007 0.5696201071036074 -0.24924894592337307 
H 1.807305192369267 -1.2140157472302973 -0.20917977098357757 
H -0.8239400209018006 -1.1319341770608697 1.254248195368413 
H -0.5181703770519152 -2.082379465514912 -0.25827241233241005 
H -1.9638685142662786 -1.0482461233745821 -0.2778962335098295 
