5
miaow
C 0.0424069696699332 -0.056588396863548183 -0.06540750274956798 
H 0.5154122298875956 0.6171764476985341 0.570779887675458 
H 0.6360203310845559 -0.7685097903434004 -0.28766288183560984 
H -0.9239065404600679 -0.3941742958632128 0.6122321151564808 
H -0.3438351015010674 0.3388641317382851 -0.8842796218115748 
