5
miaow
C -0.08628058964311372 0.042312141019471144 0.012210993019234907 
H 0.5602152075301008 0.7712423900352755 0.5804006244519866 
H 0.6967218087009786 -0.773123291813174 -0.2312912254254106 
H -0.7495244384171357 -0.3913034839646598 0.6287125173051046 
H -0.41666088210929175 0.2567784389159484 -0.8954282925670439 
