5
miaow
C -0.03999560200714808 -0.0013194228393370732 0.017188015316580967 
H 0.5182398168978863 0.8412784430336478 0.44017756844833394 
H 0.6133458415423364 -0.7522939742629389 -0.33419848774575506 
H -0.7273944795125724 -0.48511163025886883 0.6916604669785701 
H -0.40451551050010337 0.4247810194453261 -0.8192594161447634 
