5
miaow
C 0.044711278002800905 0.032643872526065175 0.05797117479720042 
H 0.6954890835546468 0.7741204008130499 0.5868620904270813 
H 0.6643717379695905 -0.7937830341304098 -0.30381637968641656 
H -0.7716549003313866 -0.4460195353084806 0.6490604965744579 
H -0.5112764056969744 0.39660269157614986 -0.9804901544274549 
