5
miaow
C -0.05684187179963725 0.06755400167330287 -0.012956399995341962 
H 0.5831572643225525 0.7838945323342438 0.5255602642500531 
H 0.7104496708628738 -0.7717699840374747 -0.26303301551906705 
H -0.7794197324974493 -0.37740084874107444 0.7003805610615786 
H -0.37265279026038595 0.3930047083409645 -0.9771438511967683 
