5
miaow
C 0.006793714891822688 -0.05111965149744968 0.0254889239662648 
H 0.5628804902923962 0.7922549307781095 0.4104991649795508 
H 0.6753937237309278 -0.7986796648097895 -0.2133560684586507 
H -0.7015170518247293 -0.37650778837471116 0.5924486122790602 
H -0.3898356459309868 0.2876279729541595 -0.832670147249788 
