5
miaow
C 0.06566870476091145 -0.017887122847318686 0.002619671580112503 
H 0.5384707844828214 0.7659190913300967 0.5581585455504585 
H 0.763812948309617 -0.8387534521289254 -0.263044368670885 
H -0.7603192911974677 -0.2921355004290527 0.6880050441854385 
H -0.44467905245747785 0.40377066853795474 -0.9426289845530806 
