5
miaow
C 0.013752306012415475 0.01956508350403725 -0.0026128125830988955 
H 0.4763742355563637 0.8255966029154461 0.5205172595864959 
H 0.6908961112954177 -0.7993970680522781 -0.21726412806133275 
H -0.7755327837202007 -0.3835075846588598 0.7297437966776242 
H -0.5193751937097246 0.3603011731225208 -0.9004202087135319 
