5
miaow
C -0.03701896559163817 -0.0276504347876342 0.05950687477757186 
H 0.6146465776269486 0.7243068049897101 0.47286681041699374 
H 0.6887605611589123 -0.8439746025608361 -0.18563290860901455 
H -0.7692838382334075 -0.419065107685226 0.6698955398096003 
H -0.44297200182625823 0.44273430276466763 -0.950530708202752 
