5
miaow
C -0.05537235737209599 0.09756396538567996 0.11447425785414297 
H 0.5343094003196502 0.7808652313425044 0.4888859339064184 
H 0.7161632389113287 -0.8490031339194517 -0.2754815735889378 
H -0.7438515897110135 -0.41197591725484584 0.5786462821583479 
H -0.4889462536278507 0.3579301021266893 -1.0218760488515923 
