5
miaow
C 0.08492202654025055 -0.013540254097228473 -0.010977422486978531 
H 0.564105370316632 0.9264743864952448 0.5253979858394053 
H 0.6723434156293954 -0.8587117614793212 -0.1232415542875426 
H -0.7199630173757707 -0.37903330013105235 0.6179629999823024 
H -0.34701009549140505 0.44439245729429255 -1.0470641547816577 
