5
miaow
C -0.02001476879357162 -0.010239961198886873 0.025378794410778772 
H 0.6860972709158479 0.8729115818179213 0.4555460305270544 
H 0.735073468276894 -0.7352654494127443 -0.1902345789827708 
H -0.7973989252922193 -0.4251241208059064 0.7383691369091487 
H -0.48439188851994147 0.5306092104123561 -0.8421564113069153 
