5
miaow
C -0.016418714120745966 -0.010888060300006865 0.022905168005869447 
H 0.670029544988916 0.7960105094004596 0.509937536484613 
H 0.6783442881831445 -0.9022753985382665 -0.30096031185393346 
H -0.7227577434683231 -0.3637787274290651 0.7167947809361122 
H -0.4503640868044084 0.422964632646325 -0.9160891433202499 
