5
miaow
C -0.04334010569251489 -0.03344168881942246 -0.013363207594972493 
H 0.5075261676730136 0.7582106988729362 0.4926304609561078 
H 0.7169829217394701 -0.7129695462459763 -0.22908764544470625 
H -0.8356109574664343 -0.37430784909505793 0.579109797673125 
H -0.4911104374621004 0.36440017400769886 -0.9202693078479985 
