5
miaow
C -0.022626456359667955 -0.025113083999724894 -0.02119339338955173 
H 0.6270546890962714 0.8366254414929986 0.506258404111931 
H 0.7108385096613196 -0.8220635366487773 -0.25821153160873805 
H -0.747348960864092 -0.427923720072937 0.61091681982035 
H -0.4698995925293865 0.28826626670586336 -0.9258905680173891 
