11
miaow
C -0.06742209978482569 -0.5556775316032407 0.013174981346375217 
C -1.2167909480319712 0.27052713398285916 0.001744562264052376 
C 1.2138482546579785 0.2230748701633076 -0.05485260286530471 
H 0.12187455795423409 -1.2992873400214875 0.8747032758024987 
H -0.07063676002763879 -1.3754461192294154 -0.8446003307905058 
H -1.2891708907662016 1.047604272525286 0.8836913526138362 
H -1.287303480425601 0.8574713162442644 -0.8235002582287612 
H -2.122693241905492 -0.3158833107088375 -0.16334236118520273 
H 2.2585720180881093 -0.3809949386997343 -0.0011025843300593186 
H 1.3368097759667599 0.9723875318227844 0.83704721692434 
H 1.35541369701994 0.9053097659218495 -0.8778065387063069 
