11
miaow
C -0.040419476298243426 -0.5561875351209935 0.01734303447062775 
C -1.244358982135452 0.36147409603195885 -0.005144531131442484 
C 1.2405312083025228 0.374862520447357 0.03093558986980718 
H -0.06901027552340869 -1.1879232013683636 0.9321723194154035 
H 0.00015101927420163098 -1.129852097010365 -0.9377519072122985 
H -1.2552533575393092 0.9558761965797599 0.8484517550187083 
H -1.2561284196597147 0.9809496755982804 -0.8364713162787676 
H -2.2394411467180677 -0.40245871531731153 0.041773203678013904 
H 2.18301207012125 -0.3345390184500795 0.061086565999564774 
H 1.2756055820061956 0.951698776628327 0.9137411298424566 
H 1.2852491117648437 0.8705601389995709 -0.940196676406229 
