11
miaow
C 0.016687119724127862 -0.5780449792213697 -0.07481829720038083 
C -1.3366916490109126 0.2598973313155402 0.05537568535185733 
C 1.2975855095569293 0.28125853642507354 -0.01858959043721923 
H -0.13294895708137483 -1.2028295504530166 0.9000769797724332 
H -0.0775930142915858 -1.1360300643884698 -0.8617638714857829 
H -1.28225153694094 0.940097414698402 0.8527406292458866 
H -1.3606183205984255 0.9427017062447245 -0.9675360778144599 
H -2.1378818855990818 -0.25466537759442115 0.13401474697458585 
H 2.196250469639857 -0.35147881404811615 -0.040431172415846844 
H 1.2455580862339504 0.9868891284385973 0.8639103770699641 
H 1.3641021348571505 0.7912159023640821 -0.8363194909915531 
