11
miaow
C 0.01779560373749591 -0.6552677394896446 0.05585722464780615 
C -1.2621202492688437 0.35246271233633747 -0.03570245608798013 
C 1.2697300485020684 0.3704752994696672 -0.01488590701127619 
H 0.023248917672234682 -1.2522852562318387 0.8535002699988592 
H 0.0037596646903239814 -1.2975228691381118 -0.9666308267046193 
H -1.2563854079698327 0.8328425622222697 0.9397218215575456 
H -1.2145379383850112 0.9275907518802761 -0.9526929001778246 
H -2.123451103629893 -0.25840607651769665 -0.009691375630609522 
H 2.1968051262496955 -0.35708288287841305 0.04529316702977758 
H 1.252110883454531 0.9543461047269332 0.8699045119049195 
H 1.2720353581694768 0.8066955428742633 -0.9053633910713846 
