11
miaow
C 0.056464407664522556 -0.5542049527336829 0.06266022086007295 
C -1.3629199265627114 0.2736354117216665 0.08266284578375438 
C 1.2311357714046967 0.2598211955830472 -0.04831470508131061 
H -0.027103951022364167 -1.1867550611703956 0.8275609670882353 
H 0.0039815115366920555 -1.1798063205238185 -0.8890593035165456 
H -1.2488231219809218 1.0493482168118806 0.8337824731436929 
H -1.2060539690507095 0.9105788797130717 -0.8535930376899614 
H -2.138008719132108 -0.35473412498837853 0.0047875397780509045 
H 2.0500752099528854 -0.3666130094441353 0.03275404002746502 
H 1.2233057740052142 0.963733481872639 0.9005937469184313 
H 1.2616139813927068 0.920389674377606 -0.937392115521387 
