11
miaow
C -0.00215795309225511 -0.5654738439948633 -0.10438129596265877 
C -1.220216794138721 0.3076539823338212 -0.004716582388747743 
C 1.2446103931019026 0.3029129890926561 0.015830778663384774 
H -0.08782341565094569 -1.298025209754906 0.8114295861621561 
H -0.04780933524507251 -1.2090551149718447 -0.877556364801005 
H -1.2776701042389944 0.9166213603249888 0.9577226409305577 
H -1.246147991386575 0.8978647724206549 -0.872214034153739 
H -2.1636146878213753 -0.36977178445637215 0.004236459686830428 
H 2.0428361753535818 -0.2868025881175753 -0.004106675396512687 
H 1.2599195820399733 0.9214989853988866 0.8893135806526548 
H 1.3218124311498038 0.9942769138596917 -0.8671813085273264 
