11
miaow
C -0.1600923702408951 -0.5341785312948487 0.04976189926676378 
C -1.1730931124113553 0.24819486310223893 -0.030075607755476765 
C 1.367541236378685 0.2711779532495719 0.006995383935725961 
H -0.13374549394300608 -1.1332724322298044 1.0096528464581105 
H -0.019733538566829675 -1.2282019742857244 -0.8070732377004861 
H -1.2483030638813655 0.9272060215623573 0.8700425207264264 
H -1.3059099403952217 0.7849445264362189 -0.9609704129278815 
H -2.2506495586949975 -0.3227328225185939 0.08969516177319749 
H 2.0986460851578244 -0.3294128157366757 -0.019564316386625032 
H 1.3031314707833235 0.9063346668305333 0.8344939295739058 
H 1.2895287527336408 0.8476160080825828 -0.783196183012222 
