11
miaow
C 0.013158823249736573 -0.4830081466922983 0.1153641715306166 
C -1.3333582853607178 0.2584515050812065 -0.03027553771211491 
C 1.2681056312408656 0.39142581281966055 0.06159999878202168 
H -0.049349890551100506 -1.2524200135928742 0.9292015446894015 
H 0.013828176796023915 -1.1949303042790156 -0.9135080757942078 
H -1.3511769838881047 0.9579009876948558 0.8286350012466063 
H -1.4548018469456083 0.9390847510433438 -0.8794751532805488 
H -2.1445925098123824 -0.4503218009750509 0.031317517432974264 
H 2.224969008806088 -0.4688515752937248 -0.016023819865396822 
H 1.4125312103248535 1.0455468354249662 0.76133325199827 
H 1.2655924637256601 1.0096183771364633 -0.9208936813442378 
