11
miaow
C 0.03300234259909984 -0.5146594545850699 0.02978058196741888 
C -1.2220626740516431 0.3545676161022835 -0.05146972877616543 
C 1.2449062917240798 0.31835662928948383 -0.05166501897511541 
H 0.001982166942783788 -1.1073811309161203 0.8649959270932465 
H 0.056044657714353435 -1.2715548401410073 -0.8444215245777461 
H -1.2706425886223196 0.8320920953929477 0.7949428370814404 
H -1.2660086826819443 0.836285277639176 -0.854850761001822 
H -2.126985525157204 -0.33342295310339687 -0.07508149635810966 
H 2.2573816235334903 -0.38468321088119073 -0.06954125977917565 
H 1.3238132969932643 1.0284625283709838 0.9446287113465013 
H 1.2282013132945926 0.9066086832638565 -0.8930773565422006 
