11
miaow
C 0.008841481042359937 -0.5729093817029117 -0.028122250743277975 
C -1.2535783120889565 0.230866987917552 -0.03664131865454997 
C 1.3261431095745393 0.26097489739750807 -0.11899800613771779 
H -0.2062839473799735 -1.1784058786670484 0.8592252458824289 
H -0.1737122964594512 -1.22021174525108 -0.9327786483082184 
H -1.2702188742840346 0.9325743292707823 0.8238483296985066 
H -1.2677159901737742 0.8893533826274532 -0.8563477122701415 
H -2.255908596702683 -0.24092763951910962 -0.005088914806958561 
H 2.298123880321334 -0.32624827120156874 0.07391071668274132 
H 1.3404390656975227 1.0130836644689996 1.017312400210189 
H 1.308744862698305 1.0428288918046007 -0.9962392006798658 
