11
miaow
C -0.14960835809302941 -0.553818709243909 0.08434434098962426 
C -1.2321547877339096 0.16493239825967182 0.07936991276358349 
C 1.2873948214669675 0.2860080042401849 -0.09216941869431437 
H -0.12341753779355459 -1.1690022747772149 0.8876001862189143 
H 0.016028139853417812 -1.3487213870688848 -0.8600497313201656 
H -1.1864401834699425 0.9302770221408384 0.8617844849678592 
H -1.3995683039142426 1.0574936568241613 -0.9859457733090305 
H -2.1797662978445795 -0.35192238613068216 0.054923986067954636 
H 2.1850066640957153 -0.24942648383696786 -0.0381439338051303 
H 1.3532910765925807 1.0562040202975724 0.9142637936945524 
H 1.2197309662907827 0.8873313074440199 -0.7330805570255788 
