11
miaow
C 0.092946488228435 -0.6554137427028777 0.002836915232677187 
C -1.2757110241289165 0.27033578301872346 -0.03277477152567096 
C 1.1995679509062787 0.24628784432499531 -0.033465181824277435 
H 0.028004561817294483 -1.2569687443563953 0.8381521494728993 
H -0.055208221545423125 -1.157923827870559 -0.85906859932821 
H -1.3202323840287737 0.9360976197811177 0.9865548797539048 
H -1.2854467765988487 0.8263040879417772 -0.8048235171116274 
H -2.073221397660026 -0.34262245839948513 0.00538656154966308 
H 2.2597453597901302 -0.38977531218771416 -0.07441459159892326 
H 1.2687895663424282 0.8888029775386025 0.8363781820068302 
H 1.3569549342368283 1.0544657432664544 -0.9141642199282892 
