11
miaow
C 0.08578417587408531 -0.6975341107558369 0.0872376055443496 
C -1.2565244686011732 0.11705059739563708 -0.06976468873421234 
C 1.2662436908943786 0.4732750300478348 0.08794153038788341 
H 0.02235232281995955 -1.1761681424151078 0.7703186902256444 
H 0.03023961715453436 -1.2569863462094497 -0.9600006212401078 
H -1.4508069952012175 0.8527080503409364 0.8935054185599485 
H -1.3171524053457833 0.8558074226053822 -0.9027917717312538 
H -2.1951771915435567 -0.39996943001507756 0.05000910475235911 
H 2.103541306655487 -0.5195813313439058 0.044122951557560755 
H 1.3703338282255464 0.9053801260153735 0.800294375611803 
H 1.3375649123578872 0.8455757059460047 -0.898778610080315 
