11
miaow
C -0.033381985488519166 -0.5903217417970251 -0.019389534416885255 
C -1.2353737860627472 0.2293557504377065 0.09700097212543053 
C 1.1967208063510244 0.24391660049587038 -0.05926397306032429 
H -0.07267068282018627 -1.2612564374460127 0.8824779854806701 
H -0.0739169056780548 -1.2193395780150262 -0.906897401055058 
H -1.1597121278700149 0.7858390405705081 0.9109360964817194 
H -1.29500943810778 0.9415345572922588 -0.7723313825301004 
H -2.180058634861936 -0.4084154346016706 0.0015508093503524987 
H 2.171490872116663 -0.3314483939746634 -0.09992674937331417 
H 1.24839547493303 0.8604527040021487 0.8980418961491297 
H 1.3409236576846857 0.9132436021018132 -0.9637351832570171 
