11
miaow
C -0.0029767884706993417 -0.5621163442279935 -0.09329794822896109 
C -1.1714949281124478 0.2721879376768689 0.07641806311300614 
C 1.230586768942117 0.32049034555736466 -0.008098439640323946 
H -0.037047142484711734 -1.1852229686170794 1.006930731730178 
H 0.007431586549325602 -1.1292443677660264 -0.8845477330308825 
H -1.3132840951258073 0.8690092888730285 0.8864054224056133 
H -1.1901496193065637 0.9604576179710159 -1.0327314626845558 
H -2.1340924539054114 -0.2516737605326256 -0.025762171767839705 
H 2.126758743448035 -0.21452971846162963 0.03600541575204573 
H 1.4371668782720917 1.0094018083990453 0.8516784697535275 
H 1.3299960111366045 0.9295889440476769 -0.9012265060854984 
