11
miaow
C 0.036446461692344084 -0.5453502421014838 -0.06726976343318035 
C -1.3453795729419946 0.318825234383106 0.008575811347823354 
C 1.304391902239833 0.27631421716865157 0.07039172995012231 
H -0.027970825928816445 -1.219499886163327 0.9233769384752587 
H -0.023558025869273115 -1.2183629666115359 -0.8935533360959155 
H -1.367637370810929 0.8815776380930214 0.9358488488446494 
H -1.3374001538586933 0.9197650775368021 -0.86487600584739 
H -2.074920664986456 -0.4657722655290823 0.03169139824112434 
H 2.125150610508471 -0.3190778573307666 0.02503688438180551 
H 1.3149943369611643 0.9188014942228713 0.8437675004818365 
H 1.2707540512174647 0.9568283052245368 -0.8720844786241531 
